<?xml version='1.0' encoding='UTF-8'?>
<routes xmlns:xsi="http://www.w3.org/2001/XMLSchema-instance" xsi:noNamespaceSchemaLocation="http://sumo.dlr.de/xsd/routes_file.xsd">
  <vehicle id="1" type="vehicle.tesla.model3" depart="0.5" departLane="best">
    <route edges="-16.0.00 -0.0.00"/>
  </vehicle>
  <vehicle id="2" type="vehicle.audi.a2" depart="0.7" departLane="best">
    <route edges="0.0.00 25.0.00"/>
  </vehicle>
  <vehicle id="3" type="vehicle.tesla.model3" depart="1.0" departLane="best">
    <route edges="-39.0.00 25.0.00"/>
  </vehicle>
  <vehicle id="4" type="vehicle.bmw.grandtourer" depart="3.0" departLane="best">
    <route edges="-16.0.00 -0.0.00"/>
  </vehicle>
  <vehicle id="5" type="vehicle.audi.a2" depart="3.2" departLane="best">
    <route edges="0.0.00 25.0.00"/>
  </vehicle>
  <vehicle id="6" type="vehicle.audi.a2" depart="3.4" departLane="best">
    <route edges="-39.0.00 25.0.00"/>
  </vehicle>
  <vehicle id="7" type="vehicle.audi.a2" depart="6.5" departLane="best">
    <route edges="0.0.00 39.0.00"/>
  </vehicle>
  <vehicle id="8" type="vehicle.tesla.model3" depart="6.6" departLane="best">
    <route edges="-16.0.00 -0.0.00"/>
  </vehicle>
  <vehicle id="9" type="vehicle.audi.a2" depart="6.8" departLane="best">
    <route edges="0.0.00 25.0.00"/>
  </vehicle>
  <vehicle id="10" type="vehicle.audi.a2" depart="7.0" departLane="best">
    <route edges="-39.0.00 25.0.00"/>
  </vehicle>
  <vehicle id="11" type="vehicle.audi.a2" depart="10.9" departLane="best">
    <route edges="0.0.00 -26.0.00"/>
  </vehicle>
  <vehicle id="12" type="vehicle.audi.a2" depart="11.5" departLane="best">
    <route edges="-16.0.00 -0.0.00"/>
  </vehicle>
  <vehicle id="13" type="vehicle.tesla.model3" depart="11.6" departLane="best">
    <route edges="0.0.00 25.0.00"/>
  </vehicle>
  <vehicle id="14" type="vehicle.audi.a2" depart="11.7" departLane="best">
    <route edges="-39.0.00 25.0.00"/>
  </vehicle>
  <vehicle id="15" type="vehicle.tesla.model3" depart="13.5" departLane="best">
    <route edges="-16.0.00 -0.0.00"/>
  </vehicle>
  <vehicle id="16" type="vehicle.audi.a2" depart="13.7" departLane="best">
    <route edges="0.0.00 25.0.00"/>
  </vehicle>
  <vehicle id="17" type="vehicle.toyota.prius" depart="13.9" departLane="best">
    <route edges="-39.0.00 25.0.00"/>
  </vehicle>
  <vehicle id="18" type="vehicle.audi.a2" depart="15.7" departLane="best">
    <route edges="-16.0.00 -0.0.00"/>
  </vehicle>
  <vehicle id="19" type="vehicle.audi.a2" depart="15.8" departLane="best">
    <route edges="0.0.00 25.0.00"/>
  </vehicle>
  <vehicle id="20" type="vehicle.tesla.model3" depart="15.9" departLane="best">
    <route edges="-39.0.00 25.0.00"/>
  </vehicle>
  <vehicle id="21" type="vehicle.tesla.model3" depart="18.0" departLane="best">
    <route edges="-16.0.00 -0.0.00"/>
  </vehicle>
  <vehicle id="22" type="vehicle.toyota.prius" depart="18.2" departLane="best">
    <route edges="0.0.00 25.0.00"/>
  </vehicle>
  <vehicle id="23" type="vehicle.audi.a2" depart="18.5" departLane="best">
    <route edges="-39.0.00 25.0.00"/>
  </vehicle>
  <vehicle id="24" type="vehicle.toyota.prius" depart="19.9" departLane="best">
    <route edges="-16.0.00 -0.0.00"/>
  </vehicle>
  <vehicle id="25" type="vehicle.audi.a2" depart="20.0" departLane="best">
    <route edges="0.0.00 25.0.00"/>
  </vehicle>
  <vehicle id="26" type="vehicle.tesla.model3" depart="20.2" departLane="best">
    <route edges="-39.0.00 25.0.00"/>
  </vehicle>
  <vehicle id="27" type="vehicle.toyota.prius" depart="21.9" departLane="best">
    <route edges="-16.0.00 -0.0.00"/>
  </vehicle>
  <vehicle id="28" type="vehicle.tesla.model3" depart="22.3" departLane="best">
    <route edges="0.0.00 25.0.00"/>
  </vehicle>
  <vehicle id="29" type="vehicle.toyota.prius" depart="22.7" departLane="best">
    <route edges="-39.0.00 25.0.00"/>
  </vehicle>
  <vehicle id="30" type="vehicle.toyota.prius" depart="24.0" departLane="best">
    <route edges="-16.0.00 -0.0.00"/>
  </vehicle>
  <vehicle id="31" type="vehicle.audi.a2" depart="24.2" departLane="best">
    <route edges="0.0.00 25.0.00"/>
  </vehicle>
  <vehicle id="32" type="vehicle.audi.a2" depart="24.5" departLane="best">
    <route edges="-39.0.00 25.0.00"/>
  </vehicle>
</routes>
