<?xml version='1.0' encoding='UTF-8'?>
<routes xmlns:xsi="http://www.w3.org/2001/XMLSchema-instance" xsi:noNamespaceSchemaLocation="http://sumo.dlr.de/xsd/routes_file.xsd">
  <vehicle id="1" type="vehicle.audi.a2" depart="7.5" departLane="best">
    <route edges="0.0.00 -26.0.00"/>
  </vehicle>
  <vehicle id="2" type="vehicle.audi.a2" depart="7.6" departLane="best">
    <route edges="-39.0.00 25.0.00"/>
  </vehicle>
  <vehicle id="3" type="vehicle.audi.a2" depart="7.7" departLane="best">
    <route edges="-29.0.00 39.0.00"/>
  </vehicle>
  <vehicle id="4" type="vehicle.audi.a2" depart="7.8" departLane="best">
    <route edges="-16.0.00 -0.0.00"/>
  </vehicle>
  <vehicle id="5" type="vehicle.audi.a2" depart="7.9" departLane="best">
    <route edges="0.0.00 25.0.00"/>
  </vehicle>
  <vehicle id="6" type="vehicle.audi.a2" depart="8.0" departLane="best">
    <route edges="-39.0.00 -26.0.00"/>
  </vehicle>
  <vehicle id="7" type="vehicle.audi.a2" depart="11.0" departLane="best">
    <route edges="0.0.00 -26.0.00"/>
  </vehicle>
  <vehicle id="8" type="vehicle.audi.a2" depart="11.1" departLane="best">
    <route edges="-39.0.00 25.0.00"/>
  </vehicle>
  <vehicle id="9" type="vehicle.audi.a2" depart="11.2" departLane="best">
    <route edges="-29.0.00 39.0.00"/>
  </vehicle>
  <vehicle id="10" type="vehicle.audi.a2" depart="11.3" departLane="best">
    <route edges="-16.0.00 -0.0.00"/>
  </vehicle>
  <vehicle id="11" type="vehicle.audi.a2" depart="11.4" departLane="best">
    <route edges="0.0.00 25.0.00"/>
  </vehicle>
  <vehicle id="12" type="vehicle.audi.a2" depart="11.5" departLane="best">
    <route edges="-39.0.00 -26.0.00"/>
  </vehicle>
  <vehicle id="13" type="vehicle.audi.a2" depart="16.0" departLane="best">
    <route edges="0.0.00 -26.0.00"/>
  </vehicle>
  <vehicle id="14" type="vehicle.audi.a2" depart="16.3" departLane="best">
    <route edges="-39.0.00 25.0.00"/>
  </vehicle>
  <vehicle id="15" type="vehicle.audi.a2" depart="16.5" departLane="best">
    <route edges="-29.0.00 39.0.00"/>
  </vehicle>
  <vehicle id="16" type="vehicle.audi.a2" depart="16.6" departLane="best">
    <route edges="-16.0.00 -0.0.00"/>
  </vehicle>
  <vehicle id="17" type="vehicle.audi.a2" depart="16.7" departLane="best">
    <route edges="0.0.00 25.0.00"/>
  </vehicle>
  <vehicle id="18" type="vehicle.audi.a2" depart="16.8" departLane="best">
    <route edges="-39.0.00 -26.0.00"/>
  </vehicle>
  <vehicle id="19" type="vehicle.audi.a2" depart="22.0" departLane="best">
    <route edges="0.0.00 -26.0.00"/>
  </vehicle>
  <vehicle id="20" type="vehicle.audi.a2" depart="22.5" departLane="best">
    <route edges="-39.0.00 25.0.00"/>
  </vehicle>
  <vehicle id="21" type="vehicle.audi.a2" depart="22.7" departLane="best">
    <route edges="-29.0.00 39.0.00"/>
  </vehicle>
  <vehicle id="22" type="vehicle.audi.a2" depart="22.9" departLane="best">
    <route edges="-16.0.00 -0.0.00"/>
  </vehicle>
  <vehicle id="23" type="vehicle.audi.a2" depart="23.1" departLane="best">
    <route edges="0.0.00 25.0.00"/>
  </vehicle>
  <vehicle id="24" type="vehicle.audi.a2" depart="23.3" departLane="best">
    <route edges="-39.0.00 -26.0.00"/>
  </vehicle>
  <vehicle id="25" type="vehicle.audi.a2" depart="35.0" departLane="best">
    <route edges="0.0.00 -26.0.00"/>
  </vehicle>
  <vehicle id="26" type="vehicle.audi.a2" depart="35.6" departLane="best">
    <route edges="-39.0.00 25.0.00"/>
  </vehicle>
  <vehicle id="27" type="vehicle.audi.a2" depart="36.0" departLane="best">
    <route edges="-29.0.00 39.0.00"/>
  </vehicle>
  <vehicle id="28" type="vehicle.audi.a2" depart="36.5" departLane="best">
    <route edges="-16.0.00 -0.0.00"/>
  </vehicle>
  <vehicle id="29" type="vehicle.audi.a2" depart="36.8" departLane="best">
    <route edges="0.0.00 25.0.00"/>
  </vehicle>
  <vehicle id="30" type="vehicle.audi.a2" depart="37.0" departLane="best">
    <route edges="-39.0.00 -26.0.00"/>
  </vehicle>
  <vehicle id="31" type="vehicle.audi.a2" depart="47.0" departLane="best">
    <route edges="0.0.00 -26.0.00"/>
  </vehicle>
  <vehicle id="32" type="vehicle.audi.a2" depart="47.6" departLane="best">
    <route edges="-39.0.00 25.0.00"/>
  </vehicle>
  <vehicle id="33" type="vehicle.audi.a2" depart="48.0" departLane="best">
    <route edges="-29.0.00 39.0.00"/>
  </vehicle>
  <vehicle id="34" type="vehicle.audi.a2" depart="48.5" departLane="best">
    <route edges="-16.0.00 -0.0.00"/>
  </vehicle>
  <vehicle id="35" type="vehicle.audi.a2" depart="49.0" departLane="best">
    <route edges="0.0.00 25.0.00"/>
  </vehicle>
  <vehicle id="36" type="vehicle.audi.a2" depart="49.5" departLane="best">
    <route edges="-39.0.00 -26.0.00"/>
  </vehicle>
</routes>
